*Heading
** Job name: AdhesionTest6-1 Model name: AdhesionTest6
** Generated by: Abaqus/CAE 6.9-EF1
*Preprint, echo=NO, model=NO, history=NO, contact=NO
**
** PARTS
**
*Part, name=Mushroom
*Node
      1,        -1.25,        1.296,        -1.25
      2,        -1.25,        1.296,  -1.04166663
      3,        -1.25,        1.296,  -1.11111116
      4,        -1.25,        1.296,  -1.18055558
      5,  -1.18055558,        1.296,        -1.25
      6,  -1.11111116,        1.296,        -1.25
      7,  -1.04166663,        1.296,        -1.25
      8,        -1.25,   1.36266673,        -1.25
      9,        -1.25,   1.42933333,        -1.25
     10,  -1.18151188,        1.296,  -1.04414976
     11,  -1.18172121,        1.296,  -1.11296964
     12,  -1.04294646,        1.296,   -1.1835494
     13,  -1.11236131,        1.296,  -1.18262851
     14,  -1.04230988,        1.296,  -1.11644661
     15,  -1.18139303,        1.296,  -1.18166041
     16,  -1.11128438,        1.296,  -1.04603863
     17,  -1.11205852,        1.296,  -1.11439645
     18,  -1.03919733,        1.296,  -1.04756415
     19,  -1.04166663,   1.36266673,        -1.25
     20,  -1.11111116,   1.36266673,        -1.25
** ... 32676 like lines cut
*Element, type=C3D8R
   1,   117,   113,   112,   118,  8433,   121,   122,  8464
   2,  1079,  1077,  1076,  1078,  8425,  1081,  1082,  8423
   3,  1150,  1147,  1673,  1675,  8469,  8403,  8402,  8446
   4,  1676,  1671,  2409,  2412,  8458,  8400,  8399,  8457
   5,  3115,  3092,  3098,  3116,  8532,  8537,  8591,  8533
   6,  4086,  4085,  4083,  4082,  8386,  8385,  4089,  4090
   7,   153,   158,   155,   154,   168,  8424,  8412,   167
   8,  1080,  1075,   113,   117,  8465,  1083,   121,  8433
   9,  2364,  2369,  2368,  2367,  8208,  8406,  8388,  8209
  10,  4102,  3088,  3089,  4103,  8396,  8487,  8497,  8440
  11,  4068,  4074,  4069,  4067,  8213,  8643,  4075,  4070
  12,  4074,  4086,  4082,  4069,  8643,  8386,  4090,  4075
  13,  4085,  4087,  4084,  4083,  8385,  8391,  4088,  4089
  14,  3078,  3079,  4085,  4086,  8435,  8452,  8385,  8386
  15,  2406,  2405,  2411,  2408,  2418,  2419,  8436,  8397
  16,  4120,  4121,  4115,  4114,  8393,  8394,  4126,  4127
  17,  3112,  3113,  3108,  3110,  8486,  8496,  8439,  8455
  18,  4122,  4121,  3111,  3106,  8438,  8394,  8481,  8395
  19,  3103,  4117,  4122,  3106,  3120,  4123,  8438,  8395
  20,  4122,  4117,  4113,  4116,  8438,  4123,  4118,  4125
** ... 28620 like lines cut
*Element, type=C3D6
5671,  4043,  4044,  8336,  4047,  4048, 12380
5672,  4043,  8336,  8342,  4047, 12380, 12386
5673,  4043,  8342,  8348,  4047, 12386, 12392
5674,  4043,  8348,  8354,  4047, 12392, 12398
5675,  4043,  8354,  8360,  4047, 12398, 12404
5676,  4043,  8360,  8366,  4047, 12404, 12410
5677,  4043,  8366,  8372,  4047, 12410, 12416
5678,  4043,  8372,  8378,  4047, 12416, 12422
5679,  4043,  8378,  8384,  4047, 12422, 12428
5680,  4043,  8384,  4045,  4047, 12428,  4050
5681,  4047,  4048, 12380,  4046,  4049, 12434
5682,  4047, 12380, 12386,  4046, 12434, 12440
5683,  4047, 12386, 12392,  4046, 12440, 12446
5684,  4047, 12392, 12398,  4046, 12446, 12452
5685,  4047, 12398, 12404,  4046, 12452, 12458
5686,  4047, 12404, 12410,  4046, 12458, 12464
5687,  4047, 12410, 12416,  4046, 12464, 12470
5688,  4047, 12416, 12422,  4046, 12470, 12476
5689,  4047, 12422, 12428,  4046, 12476, 12482
5690,  4047, 12428,  4050,  4046, 12482,  4051
** ... 1220 like lines cut
*Elset, elset=_PickedSet2, internal, generate
     1,  29880,      1
** Section: Mushroom
*Solid Section, elset=_PickedSet2, material=Silicone
,
*End Part
**  
**
** ASSEMBLY
**
*Assembly, name=Assembly
**  
*Instance, name=Mushroom-1, part=Mushroom
          0.,           0.,           0.
          0.,           0.,           0., 1.00000001268805,           0.,           0., 89.9999992730282
*End Instance
**  
*Nset, nset=TopSurf, instance=Mushroom-1
  655,  659,  660,  661,  662,  663,  664,  665,  666,  667,  668,  669,  670,  671,  672,  673
  692,  693,  694,  695,  696,  697,  698,  699,  700,  701,  702,  703,  713,  714,  715,  716
  717,  718,  719,  720,  721,  722,  723,  724,  734,  735,  736,  737,  738,  739,  740,  741
  742,  743,  744,  745,  746,  759,  760,  761,  762,  763,  764,  765,  766,  767,  768,  769
  770,  771,  772,  773,  783,  787,  788,  789,  790,  791,  792,  793,  806,  807,  808,  809
  813,  814,  815,  816,  817,  818,  819,  820,  821,  822,  823,  824,  834,  835,  836,  837
  838,  839,  840,  841,  842,  843,  844,  845,  846,  847,  848,  849,  862,  863,  864,  865
  866,  867,  868,  869,  870,  871,  872,  873,  883,  884,  885,  886,  887,  888,  889,  890
  891,  892,  893,  894,  904,  908,  909,  910,  911,  912,  913,  914,  915,  916,  917,  918
  919,  920,  921,  922, 1243, 1244, 1245, 1246, 1247, 1248, 1249, 1250, 1251, 1252, 1253, 1254
 1264, 1265, 1266, 1267, 1268, 1269, 1270, 1271, 1272, 1273, 1274, 1275, 1276, 1277, 1278, 1279
 1280, 1281, 1282, 1283, 1284, 1285, 1286, 1287, 1288, 1289, 1290, 1291, 1292, 1293, 1294, 1295
 1296, 1297, 1298, 1299, 1300, 1301, 1302, 1303, 1304, 1305, 1306, 1307, 1308, 1309, 1310, 1311
 1312, 1313, 1314, 1315, 1316, 1317, 1318, 1319, 1320, 1321, 1322, 1323, 1324, 1325, 1326, 1327
 1328, 1329, 1339, 1340, 1341, 1342, 1343, 1344, 1345, 1346, 1347, 1348, 1349, 1350, 1351, 1352
 1353, 1354, 1355, 1356, 1357, 1358, 1359, 1360, 1361, 1362, 1363, 1364, 1365, 1366, 1367, 1368
 1369, 1370, 1371, 1372, 1373, 1374, 1375, 1376, 1377, 1378, 1379, 1380, 1381, 1382, 1383, 1384
 1385, 1386, 1387, 1388, 1389, 1390, 1391, 1392, 1393, 1394, 1395, 1396, 1397, 1398, 1399, 1400
 1401, 1402, 1403, 1404, 1405, 1406, 1407, 1767, 1768, 1769, 1770, 1771, 1772, 1773, 1774, 1775
 1776, 1777, 1778, 1788, 1789, 1790, 1791, 1792, 1793, 1794, 1795, 1796, 1797, 1798, 1799, 1800
** ... 81 like lines cut
*Nset, nset=BotSurf, instance=Mushroom-1
  941,  946,  950,  953,  957,  958,  961,  963,  964,  977,  981,  982,  985,  989,  992, 1417
 1421, 1422, 1425, 1426, 1427, 1432, 1433, 1437, 1439, 1440, 1442, 1443, 1445, 1446, 1448, 1449
 1450, 1452, 1453, 1456, 1457, 1458, 1459, 1460, 1470, 1471, 1472, 1473, 1474, 1475, 1478, 1479
 1481, 1482, 1483, 1485, 1486, 1488, 1490, 1491, 1493, 1494, 1495, 1500, 1501, 1505, 1509, 1510
 1935, 1940, 1942, 1943, 1945, 1946, 1947, 1952, 1953, 1957, 1958, 1959, 1960, 1961, 1963, 1964
 1965, 1967, 1968, 1969, 1970, 1971, 1972, 1973, 1974, 1975, 1976, 1977, 1978, 1979, 1980, 1981
 1982, 1983, 1987, 1988, 1989, 1990, 1991, 1992, 1993, 1994, 1995, 1996, 1997, 1998, 1999, 2000
 2001, 2002, 2003, 2004, 2005, 2006, 2007, 2008, 2009, 2010, 2011, 2013, 2014, 2015, 2017, 2018
 2019, 2020, 2021, 2026, 2027, 2031, 2033, 2034, 2036, 2702, 2706, 2707, 2710, 2714, 2717, 2718
 2721, 2722, 2724, 2725, 2726, 2728, 2729, 2731, 2732, 2733, 2734, 2735, 2736, 2737, 2738, 2739
 2740, 2741, 2742, 2743, 2744, 2745, 2746, 2747, 2748, 2749, 2750, 2751, 2752, 2753, 2754, 2755
 2756, 2757, 2758, 2759, 2760, 2761, 2762, 2763, 2764, 2765, 2766, 2767, 2768, 2769, 2770, 2771
 2772, 2773, 2774, 2775, 2776, 2777, 2778, 2779, 2780, 2781, 2782, 2783, 2784, 2785, 2786, 2787
 2788, 2789, 2790, 2791, 2792, 2793, 2794, 2796, 2797, 2799, 2800, 2801, 2803, 2804, 2807, 2811
 2814, 2818, 2819, 2841, 2842, 2843, 2844, 2845, 2857, 2858, 2859, 2860, 2861, 2862, 2863, 2864
 2865, 2866, 2867, 2868, 2869, 2870, 2871, 3378, 3380, 3381, 3394, 3395, 3396, 3397, 3398, 3408
 3409, 3410, 3411, 3412, 3413, 3414, 3418, 3419, 3420, 3421, 3422, 3423, 3424, 3425, 3426, 3427
 3428, 3429, 3430, 3431, 3432, 3433, 3434, 3435, 3436, 3437, 3438, 3439, 3440, 3441, 3442, 3443
 3444, 3445, 3446, 3447, 3448, 3449, 3450, 3451, 3452, 3456, 3457, 3458, 3459, 3460, 3461, 3462
 3463, 3464, 3465, 3466, 3476, 3477, 3478, 3483, 3484, 3529, 3530, 3542, 3543, 3544, 3545, 3546
** ... 21 like lines cut
*Nset, nset=BotEdge, instance=Mushroom-1
  941,  946,  950,  953,  957,  958,  961,  963,  964,  977,  981,  982,  985,  989,  992, 1417
 1421, 1422, 1426, 1427, 1432, 1433, 1437, 1439, 1440, 1446, 1450, 1453, 1457, 1475, 1479, 1483
 1488, 1490, 1491, 1494, 1495, 1500, 1501, 1505, 1509, 1510, 1935, 1940, 1942, 1943, 1946, 1947
 1952, 1953, 1961, 2011, 2020, 2021, 2026, 2027, 2031, 2033, 2034, 2036, 2702, 2706, 2707, 2710
 2714, 2718, 2722, 2726, 2797, 2801, 2804, 2807, 2811, 2814, 2818, 2819, 3378, 3380, 3381, 3395
 3463, 3478, 3483, 3484, 4828, 4832, 4835, 4839, 4840, 4847, 4851, 4854, 4920, 4924, 4928, 4933
 4937, 4938, 4941, 4945, 5504, 5510, 5511, 5516, 5517, 5521, 5523, 5524, 5530, 5580, 5588, 5590
 5591, 5594, 5595, 5600, 5601, 5605, 6271, 6275, 6276, 6279, 6281, 6282, 6285, 6286, 6291, 6292
 6297, 6301, 6305, 6313, 6332, 6336, 6339, 6343, 6344, 6349, 6350, 6354, 6356, 6357, 6359, 6363
 6364, 6789, 6794, 6798, 6799, 6802, 6806, 6809, 6814, 6815, 6825, 6829, 6832, 6836, 6837, 6840
*Nset, nset=SymmEdge, instance=Mushroom-1
 3554,
*Nset, nset=SymmSide, instance=Mushroom-1
 3378, 3380, 3381, 3394, 3395, 3396, 3397, 3398, 3412, 3413, 3414, 3426, 3427, 3530, 3590, 3694
*End Assembly
** 
** MATERIALS
** 
*Material, name=Silicone
*Density
 0.001,
*Elastic
 1e+07, 0.49
** ----------------------------------------------------------------
** 
** STEP: Step-1
** 
*Step, name=Step-1, nlgeom=YES
*Static, riks
1., 1., 1e-05, , , 
** 
** BOUNDARY CONDITIONS
** 
** Name: BotSymm Type: Displacement/Rotation
*Boundary
SymmSide, 1, 1
** Name: FixedBot Type: Displacement/Rotation
*Boundary
BotEdge, 3, 3
** Name: FixedPt Type: Displacement/Rotation
*Boundary
SymmEdge, 1, 1
SymmEdge, 2, 2
** Name: TopDisp Type: Displacement/Rotation
*Boundary
TopSurf, 3, 3, -0.5
** 
** OUTPUT REQUESTS
** 
*Restart, write, frequency=0
** 
** FIELD OUTPUT: F-Output-1
** 
*Output, field, variable=PRESELECT
** 
** HISTORY OUTPUT: H-Output-1
** 
*Output, history, variable=PRESELECT
*End Step
