*Heading
** Job name: Job-4 Model name: Adhesion-1
*Preprint, echo=NO, model=NO, history=NO, contact=NO
** PARTS
*Part, name=BottomBlock
*Node
    1,          0.00000,          0.00000,         -0.01626
    2,          0.12903,          0.00000,         -0.03365
    3,          0.25806,          0.00000,         -0.05105
    4,          0.38710,          0.00000,         -0.05477
    5,          0.51613,          0.00000,         -0.05848
    6,          0.64516,          0.00000,         -0.05297
    7,          0.77419,          0.00000,         -0.04746
    8,          0.90323,          0.00000,         -0.05326
    9,          1.03226,          0.00000,         -0.05905
   10,          1.16129,          0.00000,         -0.05269
   11,          1.29032,          0.00000,         -0.04633
   12,          1.41935,          0.00000,         -0.03245
   13,          1.54839,          0.00000,         -0.01858
   14,          1.67742,          0.00000,         -0.01694
   15,          1.80645,          0.00000,         -0.01531
   16,          1.93548,          0.00000,         -0.01869
   17,          2.06452,          0.00000,         -0.02207
   18,          2.19355,          0.00000,         -0.01104
   19,          2.32258,          0.00000,          0.00000
   20,          2.45161,          0.00000,         -0.01226
** ... 11887 like lines cut
*Element, type=C3D8RH
    1,  7939,  7940,  8003,  8002,  3970,  3971,  4034,  4033
    2,  8002,  8003,  8066,  8065,  4033,  4034,  4097,  4096
    3,  8065,  8066,  8129,  8128,  4096,  4097,  4160,  4159
    4,  8128,  8129,  8192,  8191,  4159,  4160,  4223,  4222
    5,  8191,  8192,  8255,  8254,  4222,  4223,  4286,  4285
    6,  8254,  8255,  8318,  8317,  4285,  4286,  4349,  4348
    7,  8317,  8318,  8381,  8380,  4348,  4349,  4412,  4411
    8,  8380,  8381,  8444,  8443,  4411,  4412,  4475,  4474
    9,  8443,  8444,  8507,  8506,  4474,  4475,  4538,  4537
   10,  8506,  8507,  8570,  8569,  4537,  4538,  4601,  4600
   11,  8569,  8570,  8633,  8632,  4600,  4601,  4664,  4663
   12,  8632,  8633,  8696,  8695,  4663,  4664,  4727,  4726
   13,  8695,  8696,  8759,  8758,  4726,  4727,  4790,  4789
   14,  8758,  8759,  8822,  8821,  4789,  4790,  4853,  4852
   15,  8821,  8822,  8885,  8884,  4852,  4853,  4916,  4915
   16,  8884,  8885,  8948,  8947,  4915,  4916,  4979,  4978
   17,  8947,  8948,  9011,  9010,  4978,  4979,  5042,  5041
   18,  9010,  9011,  9074,  9073,  5041,  5042,  5105,  5104
   19,  9073,  9074,  9137,  9136,  5104,  5105,  5168,  5167
   20,  9136,  9137,  9200,  9199,  5167,  5168,  5231,  5230
** ... 7668 like lines cut
*Nset, nset=BotMesh, internal, generate
    1, 11907,    1
    1,     1,    1
*Elset, elset=BotMesh, internal, generate
    1,  7688,    1
    1,     1,    1
** Section: BottomSection
*Solid Section, elset=BotMesh, material="Soft Surface"
,
*End Part
** ASSEMBLY
*Assembly, name=Assembly
*Instance, name=BottomBlock-1, part=BottomBlock
*End Instance
**
*Nset, nset=nodeFixedBot, internal, instance=BottomBlock-1
  7939,  7940,  7941,  7942,  7943,  7944,  7945,  7946,  7947,  7948,  7949,  7950,  7951,  7952,  7953,  7954
  7955,  7956,  7957,  7958,  7959,  7960,  7961,  7962,  7963,  7964,  7965,  7966,  7967,  7968,  7969,  7970
  7971,  7972,  7973,  7974,  7975,  7976,  7977,  7978,  7979,  7980,  7981,  7982,  7983,  7984,  7985,  7986
  7987,  7988,  7989,  7990,  7991,  7992,  7993,  7994,  7995,  7996,  7997,  7998,  7999,  8000,  8001,  8002
  8003,  8004,  8005,  8006,  8007,  8008,  8009,  8010,  8011,  8012,  8013,  8014,  8015,  8016,  8017,  8018
  8019,  8020,  8021,  8022,  8023,  8024,  8025,  8026,  8027,  8028,  8029,  8030,  8031,  8032,  8033,  8034
  8035,  8036,  8037,  8038,  8039,  8040,  8041,  8042,  8043,  8044,  8045,  8046,  8047,  8048,  8049,  8050
  8051,  8052,  8053,  8054,  8055,  8056,  8057,  8058,  8059,  8060,  8061,  8062,  8063,  8064,  8065,  8066
  8067,  8068,  8069,  8070,  8071,  8072,  8073,  8074,  8075,  8076,  8077,  8078,  8079,  8080,  8081,  8082
  8083,  8084,  8085,  8086,  8087,  8088,  8089,  8090,  8091,  8092,  8093,  8094,  8095,  8096,  8097,  8098
  8099,  8100,  8101,  8102,  8103,  8104,  8105,  8106,  8107,  8108,  8109,  8110,  8111,  8112,  8113,  8114
  8115,  8116,  8117,  8118,  8119,  8120,  8121,  8122,  8123,  8124,  8125,  8126,  8127,  8128,  8129,  8130
  8131,  8132,  8133,  8134,  8135,  8136,  8137,  8138,  8139,  8140,  8141,  8142,  8143,  8144,  8145,  8146
  8147,  8148,  8149,  8150,  8151,  8152,  8153,  8154,  8155,  8156,  8157,  8158,  8159,  8160,  8161,  8162
  8163,  8164,  8165,  8166,  8167,  8168,  8169,  8170,  8171,  8172,  8173,  8174,  8175,  8176,  8177,  8178
  8179,  8180,  8181,  8182,  8183,  8184,  8185,  8186,  8187,  8188,  8189,  8190,  8191,  8192,  8193,  8194
  8195,  8196,  8197,  8198,  8199,  8200,  8201,  8202,  8203,  8204,  8205,  8206,  8207,  8208,  8209,  8210
  8211,  8212,  8213,  8214,  8215,  8216,  8217,  8218,  8219,  8220,  8221,  8222,  8223,  8224,  8225,  8226
  8227,  8228,  8229,  8230,  8231,  8232,  8233,  8234,  8235,  8236,  8237,  8238,  8239,  8240,  8241,  8242
  8243,  8244,  8245,  8246,  8247,  8248,  8249,  8250,  8251,  8252,  8253,  8254,  8255,  8256,  8257,  8258
** ... 229 like lines cut
*Nset, nset=nodeXsymmBot, internal, instance=BottomBlock-1
     1,    64,   127,   190,   253,   316,   379,   442,   505,   568,   631,   694,   757,   820,   883,   946
  1009,  1072,  1135,  1198,  1261,  1324,  1387,  1450,  1513,  1576,  1639,  1702,  1765,  1828,  1891,  1954
  2017,  2080,  2143,  2206,  2269,  2332,  2395,  2458,  2521,  2584,  2647,  2710,  2773,  2836,  2899,  2962
  3025,  3088,  3151,  3214,  3277,  3340,  3403,  3466,  3529,  3592,  3655,  3718,  3781,  3844,  3907,  3970
  4033,  4096,  4159,  4222,  4285,  4348,  4411,  4474,  4537,  4600,  4663,  4726,  4789,  4852,  4915,  4978
  5041,  5104,  5167,  5230,  5293,  5356,  5419,  5482,  5545,  5608,  5671,  5734,  5797,  5860,  5923,  5986
  6049,  6112,  6175,  6238,  6301,  6364,  6427,  6490,  6553,  6616,  6679,  6742,  6805,  6868,  6931,  6994
  7057,  7120,  7183,  7246,  7309,  7372,  7435,  7498,  7561,  7624,  7687,  7750,  7813,  7876,  7939,  8002
  8065,  8128,  8191,  8254,  8317,  8380,  8443,  8506,  8569,  8632,  8695,  8758,  8821,  8884,  8947,  9010
  9073,  9136,  9199,  9262,  9325,  9388,  9451,  9514,  9577,  9640,  9703,  9766,  9829,  9892,  9955, 10018
 10081, 10144, 10207, 10270, 10333, 10396, 10459, 10522, 10585, 10648, 10711, 10774, 10837, 10900, 10963, 11026
 11089, 11152, 11215, 11278, 11341, 11404, 11467, 11530, 11593, 11656, 11719, 11782, 11845
*Nset, nset=nodeYsymmBot, internal, instance=BottomBlock-1
     1,     2,     3,     4,     5,     6,     7,     8,     9,    10,    11,    12,    13,    14,    15,    16
    17,    18,    19,    20,    21,    22,    23,    24,    25,    26,    27,    28,    29,    30,    31,    32
    33,    34,    35,    36,    37,    38,    39,    40,    41,    42,    43,    44,    45,    46,    47,    48
    49,    50,    51,    52,    53,    54,    55,    56,    57,    58,    59,    60,    61,    62,    63,  3970
  3971,  3972,  3973,  3974,  3975,  3976,  3977,  3978,  3979,  3980,  3981,  3982,  3983,  3984,  3985,  3986
  3987,  3988,  3989,  3990,  3991,  3992,  3993,  3994,  3995,  3996,  3997,  3998,  3999,  4000,  4001,  4002
  4003,  4004,  4005,  4006,  4007,  4008,  4009,  4010,  4011,  4012,  4013,  4014,  4015,  4016,  4017,  4018
  4019,  4020,  4021,  4022,  4023,  4024,  4025,  4026,  4027,  4028,  4029,  4030,  4031,  4032,  7939,  7940
  7941,  7942,  7943,  7944,  7945,  7946,  7947,  7948,  7949,  7950,  7951,  7952,  7953,  7954,  7955,  7956
  7957,  7958,  7959,  7960,  7961,  7962,  7963,  7964,  7965,  7966,  7967,  7968,  7969,  7970,  7971,  7972
  7973,  7974,  7975,  7976,  7977,  7978,  7979,  7980,  7981,  7982,  7983,  7984,  7985,  7986,  7987,  7988
  7989,  7990,  7991,  7992,  7993,  7994,  7995,  7996,  7997,  7998,  7999,  8000,  8001
*Nset, nset=contactNodeBot, internal, instance=BottomBlock-1
     1,     2,     3,     4,     5,     6,     7,     8,     9,    10,    11,    12,    13,    14,    15,    16
    17,    18,    19,    20,    21,    22,    23,    24,    25,    26,    27,    28,    29,    30,    31,    32
    33,    34,    35,    36,    37,    38,    39,    40,    41,    42,    43,    44,    45,    46,    47,    48
    49,    50,    51,    52,    53,    54,    55,    56,    57,    58,    59,    60,    61,    62,    63,    64
    65,    66,    67,    68,    69,    70,    71,    72,    73,    74,    75,    76,    77,    78,    79,    80
    81,    82,    83,    84,    85,    86,    87,    88,    89,    90,    91,    92,    93,    94,    95,    96
    97,    98,    99,   100,   101,   102,   103,   104,   105,   106,   107,   108,   109,   110,   111,   112
   113,   114,   115,   116,   117,   118,   119,   120,   121,   122,   123,   124,   125,   126,   127,   128
   129,   130,   131,   132,   133,   134,   135,   136,   137,   138,   139,   140,   141,   142,   143,   144
   145,   146,   147,   148,   149,   150,   151,   152,   153,   154,   155,   156,   157,   158,   159,   160
   161,   162,   163,   164,   165,   166,   167,   168,   169,   170,   171,   172,   173,   174,   175,   176
   177,   178,   179,   180,   181,   182,   183,   184,   185,   186,   187,   188,   189,   190,   191,   192
   193,   194,   195,   196,   197,   198,   199,   200,   201,   202,   203,   204,   205,   206,   207,   208
   209,   210,   211,   212,   213,   214,   215,   216,   217,   218,   219,   220,   221,   222,   223,   224
   225,   226,   227,   228,   229,   230,   231,   232,   233,   234,   235,   236,   237,   238,   239,   240
   241,   242,   243,   244,   245,   246,   247,   248,   249,   250,   251,   252,   253,   254,   255,   256
   257,   258,   259,   260,   261,   262,   263,   264,   265,   266,   267,   268,   269,   270,   271,   272
   273,   274,   275,   276,   277,   278,   279,   280,   281,   282,   283,   284,   285,   286,   287,   288
   289,   290,   291,   292,   293,   294,   295,   296,   297,   298,   299,   300,   301,   302,   303,   304
   305,   306,   307,   308,   309,   310,   311,   312,   313,   314,   315,   316,   317,   318,   319,   320
** ... 229 like lines cut
*Surface, type=NODE, name=contactNodeBot, internal
contactNodeBot, 1.0
*Elset, elset=BottomContactSurf, internal, instance=BottomBlock-1
  3845,  3846,  3847,  3848,  3849,  3850,  3851,  3852,  3853,  3854,  3855,  3856,  3857,  3858,  3859,  3860
  3861,  3862,  3863,  3864,  3865,  3866,  3867,  3868,  3869,  3870,  3871,  3872,  3873,  3874,  3875,  3876
  3877,  3878,  3879,  3880,  3881,  3882,  3883,  3884,  3885,  3886,  3887,  3888,  3889,  3890,  3891,  3892
  3893,  3894,  3895,  3896,  3897,  3898,  3899,  3900,  3901,  3902,  3903,  3904,  3905,  3906,  3907,  3908
  3909,  3910,  3911,  3912,  3913,  3914,  3915,  3916,  3917,  3918,  3919,  3920,  3921,  3922,  3923,  3924
  3925,  3926,  3927,  3928,  3929,  3930,  3931,  3932,  3933,  3934,  3935,  3936,  3937,  3938,  3939,  3940
  3941,  3942,  3943,  3944,  3945,  3946,  3947,  3948,  3949,  3950,  3951,  3952,  3953,  3954,  3955,  3956
  3957,  3958,  3959,  3960,  3961,  3962,  3963,  3964,  3965,  3966,  3967,  3968,  3969,  3970,  3971,  3972
  3973,  3974,  3975,  3976,  3977,  3978,  3979,  3980,  3981,  3982,  3983,  3984,  3985,  3986,  3987,  3988
  3989,  3990,  3991,  3992,  3993,  3994,  3995,  3996,  3997,  3998,  3999,  4000,  4001,  4002,  4003,  4004
  4005,  4006,  4007,  4008,  4009,  4010,  4011,  4012,  4013,  4014,  4015,  4016,  4017,  4018,  4019,  4020
  4021,  4022,  4023,  4024,  4025,  4026,  4027,  4028,  4029,  4030,  4031,  4032,  4033,  4034,  4035,  4036
  4037,  4038,  4039,  4040,  4041,  4042,  4043,  4044,  4045,  4046,  4047,  4048,  4049,  4050,  4051,  4052
  4053,  4054,  4055,  4056,  4057,  4058,  4059,  4060,  4061,  4062,  4063,  4064,  4065,  4066,  4067,  4068
  4069,  4070,  4071,  4072,  4073,  4074,  4075,  4076,  4077,  4078,  4079,  4080,  4081,  4082,  4083,  4084
  4085,  4086,  4087,  4088,  4089,  4090,  4091,  4092,  4093,  4094,  4095,  4096,  4097,  4098,  4099,  4100
  4101,  4102,  4103,  4104,  4105,  4106,  4107,  4108,  4109,  4110,  4111,  4112,  4113,  4114,  4115,  4116
  4117,  4118,  4119,  4120,  4121,  4122,  4123,  4124,  4125,  4126,  4127,  4128,  4129,  4130,  4131,  4132
  4133,  4134,  4135,  4136,  4137,  4138,  4139,  4140,  4141,  4142,  4143,  4144,  4145,  4146,  4147,  4148
  4149,  4150,  4151,  4152,  4153,  4154,  4155,  4156,  4157,  4158,  4159,  4160,  4161,  4162,  4163,  4164
** ... 221 like lines cut
*Surface, type=ELEMENT, name=BottomContactSurf
BottomContactSurf, S2
*End Assembly
** MATERIALS
*Material, name="Soft Surface"
*Density
 1.00
*Elastic
 1.00, 0.49
*Material, name="Elastomer"
*Density
 1.00
*Elastic
 0.10, 0.49
**INTERACTION PROPERTIES
*Surface Interaction, name=Contact-1
1.,
*Surface Behavior, pressure-overclosure=HARD
**INTERACTIONS
*Contact Pair, interaction=Contact-1, type=SURFACE TO SURFACE
BottomContactSurf, BottomContactSurf
** STEP: Step-1
*Step, name=Step-1, nlgeom=YES
push contact
*Static
1., 1., 1e-05, 1.
** BOUNDARY CONDITIONS
** Name: BC-1 Type: Displacement/Rotation
*Boundary
NodeFixedBot, 3, 3, 0.0
NodeXSymmBot, 1, 1, 0.0
NodeYSymmBot, 2, 2, 0.0
** OUTPUT REQUESTS
*Restart, write, frequency=0
*Output, field, variable=PRESELECT
*Output, history, variable=PRESELECT
*End Step
