*Heading
 ContactWithCap
** Job name: SingleSurfJob-2 Model name: AdhesionSingleSurf
** Generated by: Abaqus/CAE 6.9-EF1
*Preprint, echo=NO, model=NO, history=NO, contact=NO
**
** PARTS
**
*Part, name=BOTTOMBLOCK
*Node
      1,           0.,           0.,  -2.17218995
      2,   1.20000005,           0.,  -2.39805007
      3,    2.4000001,           0.,  -2.62391996
      4,    3.5999999,           0.,  -2.78847003
      5,   4.80000019,           0.,   -2.9530201
      6,           6.,           0.,  -2.79930997
      7,   7.19999981,           0.,  -2.64560008
      8,   8.39999962,           0.,  -2.55035996
      9,   9.60000038,           0.,  -2.45512009
     10,   10.8000002,           0.,     -2.53634
     11,          12.,           0.,   -2.6175499
     12,   13.1999998,           0.,   -2.6905601
     13,   14.3999996,           0.,  -2.76357007
     14,   15.6000004,           0.,  -2.72302008
     15,   16.7999992,           0.,   -2.6824801
     16,          18.,           0.,  -2.78399992
     17,   19.2000008,           0.,  -2.88551998
     18,   20.3999996,           0.,  -2.87020993
     19,   21.6000004,           0.,  -2.85489988
     20,   22.7999992,           0.,  -2.79717994
** ... 2863 like lines cut
*Element, type=C3D8RH
   1, 1923, 1924, 1955, 1954,  962,  963,  994,  993
   2, 1954, 1955, 1986, 1985,  993,  994, 1025, 1024
   3, 1985, 1986, 2017, 2016, 1024, 1025, 1056, 1055
   4, 2016, 2017, 2048, 2047, 1055, 1056, 1087, 1086
   5, 2047, 2048, 2079, 2078, 1086, 1087, 1118, 1117
   6, 2078, 2079, 2110, 2109, 1117, 1118, 1149, 1148
   7, 2109, 2110, 2141, 2140, 1148, 1149, 1180, 1179
   8, 2140, 2141, 2172, 2171, 1179, 1180, 1211, 1210
   9, 2171, 2172, 2203, 2202, 1210, 1211, 1242, 1241
  10, 2202, 2203, 2234, 2233, 1241, 1242, 1273, 1272
  11, 2233, 2234, 2265, 2264, 1272, 1273, 1304, 1303
  12, 2264, 2265, 2296, 2295, 1303, 1304, 1335, 1334
  13, 2295, 2296, 2327, 2326, 1334, 1335, 1366, 1365
  14, 2326, 2327, 2358, 2357, 1365, 1366, 1397, 1396
  15, 2357, 2358, 2389, 2388, 1396, 1397, 1428, 1427
  16, 2388, 2389, 2420, 2419, 1427, 1428, 1459, 1458
  17, 2419, 2420, 2451, 2450, 1458, 1459, 1490, 1489
  18, 2450, 2451, 2482, 2481, 1489, 1490, 1521, 1520
  19, 2481, 2482, 2513, 2512, 1520, 1521, 1552, 1551
  20, 2512, 2513, 2544, 2543, 1551, 1552, 1583, 1582
** ... 1780 like lines cut
*Nset, nset=BOTMESH, generate
    1,  2883,     1
*Elset, elset=BOTMESH, generate
    1,  1800,     1
** Section: Section-1-BOTMESH
*Solid Section, elset=BOTMESH, material="SOFT SURFACE"
,
*End Part
**  
*Part, name=Part-2
*End Part
**  
**
** ASSEMBLY
**
*Assembly, name=Assembly
**  
*Instance, name=BOTTOMBLOCK-1, part=BOTTOMBLOCK
*End Instance
**  
*Instance, name=Part-2-1, part=Part-2
*Node
      1,    20.808239,   16.7999992,   3.73974133
      2,   17.6033039,   16.7999992,   3.73974133
      3,   17.7057705,   16.7999992,   8.52912426
      4,   20.7057705,   16.7999992,   8.52912426
      5,   15.2057714,   16.7999992,   8.52912426
      6,   15.2057714,   16.7999992,   9.04256535
      7,   22.4521065,   16.7999992,  -1.20213771
      8,   24.0515137,   16.7999992,  -1.20213771
      9,   14.3600283,   16.7999992,  -1.20213771
     10,   15.9594355,   16.7999992,  -1.20213771
     11,   19.2057705,   16.7999992,   1.82912397
     12,   20.7115974,   16.2519226,   3.73974133
     13,   20.4333324,   15.7699528,   3.73974133
     14,   20.0070057,    15.412221,   3.73974133
     15,   19.4840374,   15.2218761,   3.73974133
     16,   18.9275055,   15.2218761,   3.73974133
     17,   18.4045372,    15.412221,   3.73974133
     18,   17.9782085,   15.7699528,   3.73974133
     19,   17.6999435,   16.2519226,   3.73974133
     20,   18.0611515,   16.7999992,   3.73974133
** ... 3528 like lines cut
*Element, type=C3D8RH
  1,  318,   20,    2,   19, 2132,  392,   33,  328
  2,   22,  313,  319,   23,  394, 2127, 2133,  395
  3,  319,  321,   24,   23, 2133, 2135,  396,  395
  4,   16,   15,  314,  323,  331,  332, 2128, 2137
  5,  325,  319,  327,  320, 2139, 2133, 2141, 2134
  6,   21,  316,  313,   22,  393, 2130, 2127,  394
  7,  318,  317,  315,  316, 2132, 2131, 2129, 2130
  8,   20,  318,  316,   21,  392, 2132, 2130,  393
  9,   19,   18,  317,  318,  328,  329, 2131, 2132
 10,  324,  321,  319,  325, 2138, 2135, 2133, 2139
 11,   24,  321,  324,   25,  396, 2135, 2138,  397
 12,   25,  324,   12,    1,  397, 2138,  335,   34
 13,  314,   15,   14,  320, 2128,  332,  333, 2134
 14,   16,  323,  322,   17,  331, 2137, 2136,  330
 15,  322,  317,   18,   17, 2136, 2131,  329,  330
 16,  319,  313,  326,  327, 2133, 2127, 2140, 2141
 17,  326,  313,  316,  315, 2140, 2127, 2130, 2129
 18,  326,  315,  317,  322, 2140, 2129, 2131, 2136
 19,  326,  314,  320,  327, 2140, 2128, 2134, 2141
 20,  325,  320,   14,   13, 2139, 2134,  333,  334
** ... 2585 like lines cut
*Nset, nset=_PickedSet4_#4, internal
   3,   4,   5,   6,  42,  43,  44,  45,  46,  47,  48,  49,  50,  51,  52,  53
  54,  55,  56,  57,  58,  59,  60,  61,  62,  63,  64,  65,  66,  67,  68,  69
  70,  71,  72,  73,  74,  75,  76,  77,  78,  79,  80,  81,  82,  83,  84,  85
  86,  87,  88,  89,  90,  91,  92,  93,  94,  95,  96,  97,  98,  99, 100, 101
 102, 103, 104, 105, 106, 107, 108, 109, 110, 111, 112, 113, 114, 115, 116, 117
 118, 119, 120, 121, 122, 123, 124, 125, 126, 127, 128, 129, 130, 131, 132, 133
 134, 135, 136, 137, 138, 139, 140, 141, 142, 143, 144, 145, 146, 147, 148, 149
 440, 441, 442, 443, 444, 445, 446, 447, 448, 449, 450, 451, 452, 453, 454, 455
 456, 457, 458, 459, 460, 461, 462, 463, 464, 465, 466, 467, 468, 469, 470, 471
 472, 473, 474, 475, 476, 477, 478, 479, 480, 481, 482, 483, 484, 485, 486, 487
 488, 489, 490, 491, 492, 493, 494, 495, 496, 497, 498, 499, 500, 501, 502, 503
 504, 505, 506, 507, 508, 509, 510, 511, 512, 513, 514, 515, 516, 517, 518, 519
 520, 521, 522, 523, 524, 525, 526, 527, 528, 529, 530, 531, 532, 533, 534, 535
 536, 537, 538, 539, 540, 541, 542, 543, 544, 545, 546, 547, 548, 549, 550, 551
 552, 553, 554, 555, 556, 557, 558, 559, 560, 561, 562, 563, 564, 565, 566, 567
 568, 569, 570, 571, 572, 573, 574, 575, 576, 577, 578, 579, 580, 581, 582, 583
 584, 585, 586, 587, 588, 589, 590, 591, 592, 593, 594, 595, 596, 597, 598, 599
 600, 601, 602, 603, 604, 605, 606, 607, 608, 609, 610, 611, 612, 613, 614, 615
 616, 617, 618, 619, 620, 621, 622, 623, 624, 625, 626, 627, 628, 629, 630, 631
 632, 633, 634, 635, 636, 637, 638, 639, 640, 641, 642, 643, 644, 645, 646, 647
** ... 11 like lines cut
*Elset, elset=_PickedSet4_#4, internal, generate
 199,  423,    1
*Nset, nset=_PickedSet10_#2, internal
    1,    2,    3,    4,    7,    8,    9,   10,   11,   12,   13,   14,   15,   16,   17,   18
   19,   20,   21,   22,   23,   24,   25,   26,   27,   28,   29,   30,   31,   32,   33,   34
   35,   36,   37,   38,   39,   40,   41,   42,   43,   44,   45,   46,   47,   48,   49,   50
   51,   52,   53,   54,   55,   56,   57,   58,   59,   60,   61,   62,   63,  150,  151,  152
  153,  154,  155,  156,  157,  158,  159,  160,  161,  162,  163,  164,  165,  166,  167,  168
  169,  170,  171,  172,  173,  174,  175,  176,  177,  178,  179,  180,  181,  182,  183,  184
  185,  186,  187,  188,  189,  190,  191,  192,  193,  194,  195,  196,  197,  198,  199,  200
  201,  202,  203,  204,  205,  206,  207,  208,  209,  210,  211,  212,  213,  214,  215,  216
  217,  218,  219,  220,  221,  222,  223,  224,  225,  226,  227,  228,  229,  230,  231,  232
  233,  234,  235,  236,  237,  238,  239,  240,  241,  242,  243,  244,  245,  246,  247,  248
  249,  250,  251,  252,  253,  254,  255,  256,  257,  258,  259,  260,  261,  262,  263,  264
  265,  266,  267,  268,  269,  270,  271,  272,  273,  274,  275,  276,  277,  278,  279,  280
  281,  282,  283,  284,  285,  286,  287,  288,  289,  290,  291,  292,  293,  294,  295,  296
  297,  298,  299,  300,  301,  302,  303,  304,  305,  306,  307,  308,  309,  310,  311,  312
  313,  314,  315,  316,  317,  318,  319,  320,  321,  322,  323,  324,  325,  326,  327,  328
  329,  330,  331,  332,  333,  334,  335,  336,  337,  338,  339,  340,  341,  342,  343,  344
  345,  346,  347,  348,  349,  350,  351,  352,  353,  354,  355,  356,  357,  358,  359,  360
  361,  362,  363,  364,  365,  366,  367,  368,  369,  370,  371,  372,  373,  374,  375,  376
  377,  378,  379,  380,  381,  382,  383,  384,  385,  386,  387,  388,  389,  390,  391,  392
  393,  394,  395,  396,  397,  398,  399,  400,  401,  402,  403,  404,  405,  406,  407,  408
** ... 175 like lines cut
*Elset, elset=_PickedSet10_#2, internal
    1,    2,    3,    4,    5,    6,    7,    8,    9,   10,   11,   12,   13,   14,   15,   16
   17,   18,   19,   20,   21,   22,   23,   24,   25,   26,   27,   28,   29,   30,   31,   32
   33,   34,   35,   36,   37,   38,   39,   40,   41,   42,   43,   44,   45,   46,   47,   48
   49,   50,   51,   52,   53,   54,   55,   56,   57,   58,   59,   60,   61,   62,   63,   64
   65,   66,   67,   68,   69,   70,   71,   72,   73,   74,   75,   76,   77,   78,   79,   80
   81,   82,   83,   84,   85,   86,   87,   88,   89,   90,   91,   92,   93,   94,   95,   96
   97,   98,   99,  100,  101,  102,  103,  104,  105,  106,  107,  108,  109,  110,  111,  112
  113,  114,  115,  116,  117,  118,  119,  120,  121,  122,  123,  124,  125,  126,  127,  128
  129,  130,  131,  132,  133,  134,  135,  136,  137,  138,  139,  140,  141,  142,  143,  144
  145,  146,  147,  148,  149,  150,  151,  152,  153,  154,  155,  156,  157,  158,  159,  160
  161,  162,  163,  164,  165,  166,  167,  168,  169,  170,  171,  172,  173,  174,  175,  176
  177,  178,  179,  180,  181,  182,  183,  184,  185,  186,  187,  188,  189,  190,  191,  192
  193,  194,  195,  196,  197,  198,  424,  425,  426,  427,  428,  429,  430,  431,  432,  433
  434,  435,  436,  437,  438,  439,  440,  441,  442,  443,  444,  445,  446,  447,  448,  449
  450,  451,  452,  453,  454,  455,  456,  457,  458,  459,  460,  461,  462,  463,  464,  465
  466,  467,  468,  469,  470,  471,  472,  473,  474,  475,  476,  477,  478,  479,  480,  481
  482,  483,  484,  485,  486,  487,  488,  489,  490,  491,  492,  493,  494,  495,  496,  497
  498,  499,  500,  501,  502,  503,  504,  505,  506,  507,  508,  509,  510,  511,  512,  513
  514,  515,  516,  517,  518,  519,  520,  521,  522,  523,  524,  525,  526,  527,  528,  529
  530,  531,  532,  533,  534,  535,  536,  537,  538,  539,  540,  541,  542,  543,  544,  545
** ... 129 like lines cut
** Section: Section-Cup
*Solid Section, elset=_PickedSet10_#2, material=ELASTOMER
,
** Section: Section-Cup
*Solid Section, elset=_PickedSet4_#4, material=ELASTOMER
,
*End Instance
**  
*Nset, nset=_PickedSet41, internal, instance=Part-2-1
   3,   4,  42,  43,  44,  45,  46,  47,  48,  49,  50,  51,  52,  53,  54,  55
  56,  57,  58,  59,  60,  61,  62,  63, 440, 441, 442, 443, 444, 445, 446, 447
 448, 449, 450, 451, 452, 453, 454, 455, 456, 457, 458, 459, 460, 461, 462, 463
 464, 465, 466, 467, 468, 469
*Elset, elset=_PickedSet41, internal, instance=Part-2-1
 177, 178, 179, 180, 181, 182, 183, 184, 185, 186, 187, 188, 189, 190, 191, 192
 193, 194, 195, 196, 197, 198, 199, 200, 201, 202, 203, 204, 205, 206, 207, 208
 209, 210, 211, 212, 213, 214, 215, 216, 217, 218, 219, 220, 221, 222, 223, 224
 225, 226, 227, 228, 229, 230, 231, 232, 233, 234, 235, 236, 237, 238, 239, 240
 241, 242, 640, 641, 642, 643, 644, 645, 646, 647, 648, 649, 650, 651, 652, 653
 654, 655, 656, 657, 658, 659, 660, 661
*Nset, nset=_PickedSet69, internal, instance=Part-2-1
   6, 107, 108, 109, 110, 111, 112, 113, 114, 115, 116, 117, 118, 119, 120, 121
 122, 123, 124, 125, 126, 127, 128, 129, 130, 131, 132, 133, 134, 135, 136, 137
 138, 139, 140, 141, 142, 143, 144, 145, 146, 147, 148, 149, 620, 621, 622, 623
 624, 625, 626, 627, 628, 629, 630, 631, 632, 633, 634, 635, 636, 637, 638, 639
 640, 641, 642, 643, 644, 645, 646, 647, 648, 649, 650, 651, 652, 653, 654, 655
 656, 657, 658, 659, 660, 661, 662, 663, 664, 665, 666, 667, 668, 669, 670, 671
 672, 673, 674, 675, 676, 677, 678, 679, 680, 681, 682, 683, 684, 685, 686, 687
 688, 689, 690, 691, 692, 693, 694, 695, 696, 697, 698, 699, 700, 701, 702, 703
 704, 705, 706, 707, 708, 709, 710, 711, 712, 713, 714, 715, 716, 717, 718, 719
 720, 721, 722, 723, 724, 725, 726, 727, 728, 729, 730, 731, 732, 733, 734, 735
 736, 737, 738, 739, 740, 741, 742, 743, 744, 745, 746, 747, 748, 749, 750, 751
 752, 753, 754, 755, 756, 757, 758, 759, 760, 761, 762, 763, 764, 765, 766, 767
 768, 769, 770, 771, 772, 773, 774, 775, 776, 777, 778, 779, 780, 781, 782, 783
 784, 785, 786, 787, 788, 789, 790, 791, 792, 793, 794, 795, 796, 797, 798, 799
 800, 801, 802, 803, 804, 805, 806, 807, 808, 809, 810, 811, 812, 813, 814, 815
 816, 817, 818, 819, 820, 821, 822, 823
*Elset, elset=_PickedSet69, internal, instance=Part-2-1, generate
 199,  423,    1
*Nset, nset=_PickedSet73, internal, instance=Part-2-1
 5, 6
*Nset, nset=NODEFIXEDBOT, instance=BOTTOMBLOCK-1, generate
 1923,  2883,     1
*Nset, nset=NODEXSYMMBOT, instance=BOTTOMBLOCK-1, generate
    1,  2853,    31
*Nset, nset=NODEYSYMMBOT, instance=BOTTOMBLOCK-1
    1,    2,    3,    4,    5,    6,    7,    8,    9,   10,   11,   12,   13,   14,   15,   16
   17,   18,   19,   20,   21,   22,   23,   24,   25,   26,   27,   28,   29,   30,   31,  962
  963,  964,  965,  966,  967,  968,  969,  970,  971,  972,  973,  974,  975,  976,  977,  978
  979,  980,  981,  982,  983,  984,  985,  986,  987,  988,  989,  990,  991,  992, 1923, 1924
 1925, 1926, 1927, 1928, 1929, 1930, 1931, 1932, 1933, 1934, 1935, 1936, 1937, 1938, 1939, 1940
 1941, 1942, 1943, 1944, 1945, 1946, 1947, 1948, 1949, 1950, 1951, 1952, 1953
*Elset, elset=BOTTOMCONTACTSURF, instance=BOTTOMBLOCK-1, generate
  901,  1800,     1
*Nset, nset=CONTACTNODEBOT, instance=BOTTOMBLOCK-1, generate
   1,  961,    1
*Elset, elset=__PickedSurf28_S2, internal, instance=Part-2-1, generate
 177,  198,    1
*Elset, elset=__PickedSurf28_S1, internal, instance=Part-2-1
 199, 200, 201, 202, 203, 204, 205, 206, 207, 208, 209, 210, 211, 212, 213, 214
 215, 216, 217, 218, 219, 220, 221, 222, 223, 224, 225, 226, 227, 228, 229, 230
 231, 232, 233, 234, 235, 236, 237, 238, 239, 240, 241, 242, 640, 641, 642, 643
 644, 645, 646, 647, 648, 649, 650, 651, 652, 653, 654, 655, 656, 657, 658, 659
 660, 661
*Surface, type=ELEMENT, name=_PickedSurf28, internal
__PickedSurf28_S2, S2
__PickedSurf28_S1, S1
*Elset, elset=_SlaveContactSurf_S2, internal, instance=Part-2-1
 1513, 1514, 1515, 1516, 1517, 1518, 1519, 1520, 1521, 1522, 1523, 1524, 1525, 1526, 1527, 1528
 1529, 1530, 1531, 1532, 1533, 1534, 1535, 1536, 1537, 1538, 1539, 1540, 1541, 1542, 1543, 1544
 1545, 1546, 1547, 1548, 1549, 1550, 1551, 1552, 1553, 1554, 1555, 1556, 1557, 1558, 1559, 1560
 1561, 1562, 1563, 1564, 1565, 1566, 1567, 1568, 1569, 1570, 1571, 1572, 1573, 1574, 1575, 1576
 1577, 1578, 1579, 1580, 1581, 1582, 1583, 1584, 1585, 1586, 1587, 1588, 1589, 1590, 1591, 1592
 1593, 1594, 1595, 1596, 1597, 1598, 1599, 1600, 1601, 1602, 1603, 1604, 1605, 1606, 1607, 1608
 1609, 1610, 1611, 1612, 1613, 1614, 1615, 1616, 1617, 1618, 1619, 1620, 1621, 1622, 1623, 1624
 1625, 1626, 1627, 1628, 1629, 1630, 1631, 1632, 1633, 1634, 1635, 1636, 1637, 1638, 1639, 1640
 1641, 1642, 1643, 1644, 1645, 1646, 1647, 1648, 1649, 1650, 1651, 1652, 1653, 1654, 1655, 1656
 1657, 1658, 1659, 1660, 1661, 1662, 1663, 1664, 1665, 1666, 1667, 1668, 1669, 1670, 1671, 1672
 1673, 1674, 1675, 1676, 1677, 1678, 1679, 1680, 1681, 1682, 1683, 1684, 1685, 1686, 1687, 1688
 1689, 1690, 1691, 1692, 1693, 1694, 1695, 1696, 1697, 1698, 1699, 1700, 1701, 1702, 1703, 1704
 1705, 1706, 1707, 1708, 1709, 1710, 1711, 1712, 1713, 1714, 1715, 1716, 1717, 1718, 1719, 1720
 1721, 1722, 1723, 1724, 1725, 1726, 1727, 1728, 1729, 1730, 1731, 1732, 1733, 1734, 1735, 1736
 1737, 2389, 2390, 2391, 2392, 2393, 2394, 2395, 2396, 2397, 2398, 2399, 2400, 2401, 2402, 2403
 2404, 2405, 2406, 2407, 2408, 2409, 2410, 2411, 2412, 2413, 2414, 2415, 2416, 2417, 2418, 2419
 2420, 2421, 2422, 2423, 2424, 2425, 2426, 2427, 2428, 2429, 2430, 2431, 2432, 2433, 2434, 2435
 2436, 2437, 2438, 2439, 2440, 2441, 2442, 2443, 2444, 2445, 2446, 2447, 2448, 2449, 2450, 2451
 2452, 2453, 2454, 2455, 2456, 2457, 2458, 2459, 2460, 2461, 2462, 2463, 2464, 2465, 2466, 2467
 2468, 2469, 2470, 2471, 2472, 2473, 2474, 2475, 2476, 2477, 2478, 2479, 2480, 2481, 2482, 2483
** ... 8 like lines cut
*Elset, elset=_SlaveContactSurf_S5, internal, instance=Part-2-1, generate
 424,  638,    2
*Elset, elset=_SlaveContactSurf_S6, internal, instance=Part-2-1, generate
 424,  636,    4
*Elset, elset=_SlaveContactSurf_S3, internal, instance=Part-2-1, generate
 425,  639,    2
*Elset, elset=_SlaveContactSurf_S4, internal, instance=Part-2-1, generate
 425,  637,    4
*Surface, type=ELEMENT, name=SlaveContactSurf
_SlaveContactSurf_S2, S2
_SlaveContactSurf_S5, S5
_SlaveContactSurf_S6, S6
_SlaveContactSurf_S4, S4
_SlaveContactSurf_S3, S3
*Elset, elset=_DispBCSurf_S2, internal, instance=Part-2-1, generate
 199,  423,    1
*Surface, type=ELEMENT, name=DispBCSurf
_DispBCSurf_S2, S2
*Elset, elset=_BOTTOMCONTACTSURF_S2, internal, instance=BOTTOMBLOCK-1, generate
  901,  1800,     1
*Surface, type=ELEMENT, name=BOTTOMCONTACTSURF
_BOTTOMCONTACTSURF_S2, S2
*Elset, elset=__ContactCupSurf_ssm_3_S5, internal, instance=Part-2-1, generate
 424,  530,    2
*Elset, elset=__ContactCupSurf_ssm_3_S6, internal, instance=Part-2-1, generate
 424,  528,    4
*Elset, elset=__ContactCupSurf_ssm_3_S3, internal, instance=Part-2-1, generate
 425,  531,    2
*Elset, elset=__ContactCupSurf_ssm_3_S4, internal, instance=Part-2-1, generate
 425,  529,    4
*Surface, type=ELEMENT, name=_ContactCupSurf_ssm_3, internal
__ContactCupSurf_ssm_3_S5, S5
__ContactCupSurf_ssm_3_S6, S6
__ContactCupSurf_ssm_3_S4, S4
__ContactCupSurf_ssm_3_S3, S3
*Elset, elset=__ContactCupSurf_ssm_4_S5, internal, instance=Part-2-1, generate
 532,  638,    2
*Elset, elset=__ContactCupSurf_ssm_4_S6, internal, instance=Part-2-1, generate
 532,  636,    4
*Elset, elset=__ContactCupSurf_ssm_4_S3, internal, instance=Part-2-1, generate
 533,  639,    2
*Elset, elset=__ContactCupSurf_ssm_4_S4, internal, instance=Part-2-1, generate
 533,  637,    4
*Surface, type=ELEMENT, name=_ContactCupSurf_ssm_4, internal
__ContactCupSurf_ssm_4_S5, S5
__ContactCupSurf_ssm_4_S6, S6
__ContactCupSurf_ssm_4_S4, S4
__ContactCupSurf_ssm_4_S3, S3
*End Assembly
** 
** MATERIALS
** 
*Material, name=ELASTOMER
*Density
1.,
*Hyperelastic, yeoh
 12.02,   -0.57,   0.044, 9.2e-10, 9.2e-10, 9.2e-10
**  MATERIALS
*Material, name="SOFT SURFACE"
*Density
1.,
*Hyperelastic, neo hooke
2290., 9.2e-10
** 
** INTERACTION PROPERTIES
** 
*Surface Interaction, name=CONTACT-1
1.,
*Friction
0.,
*Surface Behavior, pressure-overclosure=HARD
*Surface Smoothing, name=ContactCupSurf
_ContactCupSurf_ssm_3, , CIRCUMFERENTIAL, 19.2058, 16.8, -1.1888, 19.2058, 16.8, -0.1888
_ContactCupSurf_ssm_4, , CIRCUMFERENTIAL, 19.2058, 16.8, -1.1888, 19.2058, 16.8, -0.1888
** 
** INTERACTIONS
** 
** Interaction: ContactCupSurf
*Contact Pair, interaction=CONTACT-1, type=SURFACE TO SURFACE, adjust=0.0, geometric correction=ContactCupSurf
SlaveContactSurf, BOTTOMCONTACTSURF
** ----------------------------------------------------------------
** 
** STEP: Step-1
** 
*Step, name=Step-1, nlgeom=YES, inc=2000
push contact
*Static
0.01, 2., 1e-09, 0.05
** 
** BOUNDARY CONDITIONS
** 
** Name: BC-4 Type: Displacement/Rotation
*Boundary
_PickedSet69, 3, 3, -2.5
** Name: BC-5 Type: Displacement/Rotation
*Boundary
_PickedSet73, 1, 1
_PickedSet73, 2, 2
** Name: Disp-BC-1 Type: Displacement/Rotation
*Boundary
NODEFIXEDBOT, 3, 3
** Name: Disp-BC-2 Type: Displacement/Rotation
*Boundary
NODEXSYMMBOT, 1, 1
** Name: Disp-BC-3 Type: Displacement/Rotation
*Boundary
NODEYSYMMBOT, 2, 2
** 
** INTERACTIONS
** 
** Contact Controls for Interaction: ContactCupSurf
*Contact Controls, master=BOTTOMCONTACTSURF, slave=SlaveContactSurf, reset
*Contact Controls, master=BOTTOMCONTACTSURF, slave=SlaveContactSurf, Lagrange multiplier=YES, automaticTolerances, stabilize=0.1, 
tangent fraction=0.1
** 
** OUTPUT REQUESTS
** 
*Restart, write, frequency=0
** 
** FIELD OUTPUT: F-Output-1
** 
*Output, field, variable=PRESELECT
** 
** HISTORY OUTPUT: H-Output-1
** 
*Output, history, variable=PRESELECT
*End Step
