*Heading
** Job name: SingleSurfJob-1 Model name: AdhesionSingleSurf
** Generated by: Abaqus/CAE 6.9-EF1
*Preprint, echo=NO, model=NO, history=NO, contact=NO
**
** PARTS
**
*Part, name=BOTTOMBLOCK
*Node
      1,           0.,           0.,  -2.17218995
      2,   1.20000005,           0.,  -2.39805007
      3,    2.4000001,           0.,  -2.62391996
      4,    3.5999999,           0.,  -2.78847003
      5,   4.80000019,           0.,   -2.9530201
      6,           6.,           0.,  -2.79930997
      7,   7.19999981,           0.,  -2.64560008
      8,   8.39999962,           0.,  -2.55035996
      9,   9.60000038,           0.,  -2.45512009
     10,   10.8000002,           0.,     -2.53634
     11,          12.,           0.,   -2.6175499
     12,   13.1999998,           0.,   -2.6905601
     13,   14.3999996,           0.,  -2.76357007
     14,   15.6000004,           0.,  -2.72302008
     15,   16.7999992,           0.,   -2.6824801
     16,          18.,           0.,  -2.78399992
     17,   19.2000008,           0.,  -2.88551998
     18,   20.3999996,           0.,  -2.87020993
     19,   21.6000004,           0.,  -2.85489988
     20,   22.7999992,           0.,  -2.79717994
** ... 2863 like lines cut
*Element, type=C3D8RH
   1, 1923, 1924, 1955, 1954,  962,  963,  994,  993
   2, 1954, 1955, 1986, 1985,  993,  994, 1025, 1024
   3, 1985, 1986, 2017, 2016, 1024, 1025, 1056, 1055
   4, 2016, 2017, 2048, 2047, 1055, 1056, 1087, 1086
   5, 2047, 2048, 2079, 2078, 1086, 1087, 1118, 1117
   6, 2078, 2079, 2110, 2109, 1117, 1118, 1149, 1148
   7, 2109, 2110, 2141, 2140, 1148, 1149, 1180, 1179
   8, 2140, 2141, 2172, 2171, 1179, 1180, 1211, 1210
   9, 2171, 2172, 2203, 2202, 1210, 1211, 1242, 1241
  10, 2202, 2203, 2234, 2233, 1241, 1242, 1273, 1272
  11, 2233, 2234, 2265, 2264, 1272, 1273, 1304, 1303
  12, 2264, 2265, 2296, 2295, 1303, 1304, 1335, 1334
  13, 2295, 2296, 2327, 2326, 1334, 1335, 1366, 1365
  14, 2326, 2327, 2358, 2357, 1365, 1366, 1397, 1396
  15, 2357, 2358, 2389, 2388, 1396, 1397, 1428, 1427
  16, 2388, 2389, 2420, 2419, 1427, 1428, 1459, 1458
  17, 2419, 2420, 2451, 2450, 1458, 1459, 1490, 1489
  18, 2450, 2451, 2482, 2481, 1489, 1490, 1521, 1520
  19, 2481, 2482, 2513, 2512, 1520, 1521, 1552, 1551
  20, 2512, 2513, 2544, 2543, 1551, 1552, 1583, 1582
** ... 1780 like lines cut
*Nset, nset=BOTMESH, generate
    1,  2883,     1
*Elset, elset=BOTMESH, generate
    1,  1800,     1
** Section: Section-1-BOTMESH
*Solid Section, elset=BOTMESH, material="SOFT SURFACE"
,
*End Part
**  
*Part, name=BanerjeeTestPart
*Node
      1,  -1.60246778,           0.,   3.08938265
      2,   1.60246778,           0.,   3.08938265
      3,          1.5,           0.,  -1.70000005
      4,         -1.5,           0.,  -1.70000005
      5,   -4.8457427,           0.,   8.03126144
      6,    4.8457427,           0.,   8.03126144
      7,   3.24633622,           0.,   8.03126144
      8,  -3.24633622,           0.,   8.03126144
      9,           0.,           0.,           5.
     10,  -1.52403748, -0.495189786,   3.08938265
     11,  -1.29642367, -0.941906929,   3.08938265
     12, -0.941906929,  -1.29642367,   3.08938265
     13, -0.495189786,  -1.52403748,   3.08938265
     14,           0.,  -1.60246778,   3.08938265
     15,  0.495189786,  -1.52403748,   3.08938265
     16,  0.941906929,  -1.29642367,   3.08938265
     17,   1.29642367, -0.941906929,   3.08938265
     18,   1.52403748, -0.495189786,   3.08938265
     19,   1.06831181,           0.,   3.08938265
     20,  0.534155905,           0.,   3.08938265
** ... 3345 like lines cut
*Element, type=C3D8H
  1,  244,   19,    2,   18, 1829,  251,   24,  296
  2,   21,  237,  243,   22,  253, 1822, 1828,  254
  3,  243,  237,  238,  242, 1828, 1822, 1823, 1827
  4,  246,  240,   16,   15, 1831, 1825,  298,  299
  5,  246,  247,  236,  239, 1831, 1832, 1821, 1824
  6,   21,  249,  250,  237,  253, 1834, 1835, 1822
  7,  237,  250,  239,  238, 1822, 1835, 1824, 1823
  8,  250,  249,  241,  240, 1835, 1834, 1826, 1825
  9,  249,  245,  244,  241, 1834, 1830, 1829, 1826
 10,   13,   12,  242,  236,  301,  302, 1827, 1821
 11,  239,  236,  242,  238, 1824, 1821, 1827, 1823
 12,   12,   11,  243,  242,  302,  303, 1828, 1827
 13,    1,   23,  248,   10,   46,  255, 1833,  304
 14,  236,  247,   14,   13, 1821, 1832,  300,  301
 15,   17,   16,  240,  241,  297,  298, 1825, 1826
 16,   21,   20,  245,  249,  253,  252, 1830, 1834
 17,  246,  239,  250,  240, 1831, 1824, 1835, 1825
 18,  241,  244,   18,   17, 1826, 1829,  296,  297
 19,   10,  248,  243,   11,  304, 1833, 1828,  303
 20,   22,  243,  248,   23,  254, 1828, 1833,  255
** ... 2550 like lines cut
*Nset, nset=_PickedSet10, internal, generate
    1,  3365,     1
*Elset, elset=_PickedSet10, internal, generate
    1,  2570,     1
** Section: Section-Cup
*Solid Section, elset=_PickedSet10, material=ELASTOMER
,
*End Part
**  
**
** ASSEMBLY
**
*Assembly, name=Assembly
**  
*Instance, name=BOTTOMBLOCK-1, part=BOTTOMBLOCK
*End Instance
**  
*Instance, name=BanerjeeTestPart-1, part=BanerjeeTestPart
   19.205771,    16.799999,     6.829124
   19.205771,    16.799999,     6.829124,    19.205771,    17.799999,     6.829124,         180.
*End Instance
**  
*Nset, nset=_PickedSet14, internal, instance=BanerjeeTestPart-1
    3,    4,   33,   34,   35,   36,   37,   47,   48,   49,   50,   51,   52,   53,   54,   55
  227,  228,  229,  230,  231,  232,  233,  234,  235,  377,  378,  379,  380,  381,  382,  383
  384,  385,  386,  387,  388,  389,  390,  391, 1413, 1414, 1415, 1416, 1417, 1418, 1419, 1420
 1421, 1422, 1423, 1424
*Elset, elset=_PickedSet14, internal, instance=BanerjeeTestPart-1
  199,  200,  201,  202,  203,  204,  205,  206,  207,  208,  209,  210,  211,  212,  213,  214
  215,  216,  217,  218,  219,  220, 1612, 1613, 1614, 1615, 1616, 1617, 1618, 1619, 1620, 1621
 1622, 1623, 1624, 1625, 1626, 1627, 1628, 1629, 1630
*Nset, nset=_PickedSet15, internal, instance=BanerjeeTestPart-1
  3,  4, 33, 34, 35, 36, 37
*Elset, elset=_PickedSet15, internal, instance=BanerjeeTestPart-1
  199,  200,  211,  214,  218,  219, 1612, 1619, 1621, 1624, 1627, 1628
*Nset, nset=_PickedSet41, internal, instance=BanerjeeTestPart-1
    3,    4,   33,   34,   35,   36,   37,   47,   48,   49,   50,   51,   52,   53,   54,   55
  227,  228,  229,  230,  231,  232,  233,  234,  235,  377,  378,  379,  380,  381,  382,  383
  384,  385,  386,  387,  388,  389,  390,  391, 1413, 1414, 1415, 1416, 1417, 1418, 1419, 1420
 1421, 1422, 1423, 1424
*Elset, elset=_PickedSet41, internal, instance=BanerjeeTestPart-1
  199,  200,  201,  202,  203,  204,  205,  206,  207,  208,  209,  210,  211,  212,  213,  214
  215,  216,  217,  218,  219,  220, 1612, 1613, 1614, 1615, 1616, 1617, 1618, 1619, 1620, 1621
 1622, 1623, 1624, 1625, 1626, 1627, 1628, 1629, 1630
*Nset, nset=NODEFIXEDBOT, instance=BOTTOMBLOCK-1, generate
 1923,  2883,     1
*Nset, nset=NODEXSYMMBOT, instance=BOTTOMBLOCK-1, generate
    1,  2853,    31
*Nset, nset=NODEYSYMMBOT, instance=BOTTOMBLOCK-1
    1,    2,    3,    4,    5,    6,    7,    8,    9,   10,   11,   12,   13,   14,   15,   16
   17,   18,   19,   20,   21,   22,   23,   24,   25,   26,   27,   28,   29,   30,   31,  962
  963,  964,  965,  966,  967,  968,  969,  970,  971,  972,  973,  974,  975,  976,  977,  978
  979,  980,  981,  982,  983,  984,  985,  986,  987,  988,  989,  990,  991,  992, 1923, 1924
 1925, 1926, 1927, 1928, 1929, 1930, 1931, 1932, 1933, 1934, 1935, 1936, 1937, 1938, 1939, 1940
 1941, 1942, 1943, 1944, 1945, 1946, 1947, 1948, 1949, 1950, 1951, 1952, 1953
*Elset, elset=BOTTOMCONTACTSURF, instance=BOTTOMBLOCK-1, generate
  901,  1800,     1
*Nset, nset=CONTACTNODEBOT, instance=BOTTOMBLOCK-1, generate
   1,  961,    1
*Elset, elset=_TopContactSurface_S2, internal, instance=BanerjeeTestPart-1
  968,  969,  970,  971,  972,  973,  974,  975,  976,  977,  978,  979,  980,  981,  982,  983
  984,  985,  986,  987,  988,  989,  990,  991,  992,  993,  994,  995,  996,  997,  998,  999
 1000, 1001, 1002, 1003, 1004, 1005, 1006, 1007, 1008, 1009, 1010, 1011, 1012, 1013, 1014, 1015
 1016, 1017, 1018, 1019, 1020, 1021, 1022, 1023, 1024, 1025, 1026, 1027, 1028, 1029, 1030, 1031
 1032, 1033, 1034, 1035, 1036, 1037, 1038, 1039, 1040, 1041, 1042, 1043, 1044, 1045, 1046, 1047
 1048, 1049, 1050, 1051, 1052, 1053, 1054, 1055, 1056, 1057, 1058, 1059, 1060, 1061, 1062, 1063
 1064, 1065, 1066, 1067, 1068, 1069, 1070, 1071, 1072, 1073, 1074, 1075, 1076, 1077, 1078, 1079
 1080, 1081, 1082, 1083, 1084, 1085, 1086, 1087, 1088, 1089, 1090, 1091, 1092, 1093, 1094, 1095
 1096, 1097, 1098, 1099, 1100, 1101, 1102, 1103, 1104, 1105, 1106, 1107, 1108, 1109, 1110, 1111
 1112, 1113, 1114, 1115, 1116, 1117, 1118, 1119, 1120, 1121, 1122, 1123, 1124, 1125, 1126, 1127
 1128, 1129, 1130, 1131, 1132, 1133, 1134, 1135, 1136, 1137, 1138, 1139, 1140, 1141, 1142, 1143
 1144, 1145, 1146, 1147, 1148, 1149, 1150, 1151, 1152, 1153, 1154, 1155, 1156, 1157, 1158, 1159
 1160, 1161, 1162, 1163, 1164, 1165, 1166, 1167, 1168, 1169, 1170, 1171, 1172, 1173, 1174, 1175
 1176, 1177, 1178, 1179, 1180, 1181, 1182, 1183, 1184, 1185, 1186, 1187, 1188, 1189, 1190, 1191
 1192, 1193, 1194, 1195, 1196, 1197, 1198, 1199, 1200, 1201, 1202, 1203, 1204, 1205, 1206, 1207
 1208, 1209, 1210, 1211, 1212, 1213, 1214, 1215, 1216, 2336, 2337, 2338, 2339, 2340, 2341, 2342
 2343, 2344, 2345, 2346, 2347, 2348, 2349, 2350, 2351, 2352, 2353, 2354, 2355, 2356, 2357, 2358
 2359, 2360, 2361, 2362, 2363, 2364, 2365, 2366, 2367, 2368, 2369, 2370, 2371, 2372, 2373, 2374
 2375, 2376, 2377, 2378, 2379, 2380, 2381, 2382, 2383, 2384, 2385, 2386, 2387, 2388, 2389, 2390
 2391, 2392, 2393, 2394, 2395, 2396, 2397, 2398, 2399, 2400, 2401, 2402, 2403, 2404, 2405, 2406
** ... 11 like lines cut
*Elset, elset=_TopContactSurface_S3, internal, instance=BanerjeeTestPart-1, generate
 1217,  1437,     4
*Elset, elset=_TopContactSurface_S4, internal, instance=BanerjeeTestPart-1, generate
 1217,  1437,     4
*Elset, elset=_TopContactSurface_S5, internal, instance=BanerjeeTestPart-1, generate
 1218,  1438,     4
*Elset, elset=_TopContactSurface_S6, internal, instance=BanerjeeTestPart-1
 1218, 1219, 1220, 1222, 1223, 1224, 1226, 1227, 1228, 1230, 1231, 1232, 1234, 1235, 1236, 1238
 1239, 1240, 1242, 1243, 1244, 1246, 1247, 1248, 1250, 1251, 1252, 1254, 1255, 1256, 1258, 1259
 1260, 1262, 1263, 1264, 1266, 1267, 1268, 1270, 1271, 1272, 1274, 1275, 1276, 1278, 1279, 1280
 1282, 1283, 1284, 1286, 1287, 1288, 1290, 1291, 1292, 1294, 1295, 1296, 1298, 1299, 1300, 1302
 1303, 1304, 1306, 1307, 1308, 1310, 1311, 1312, 1314, 1315, 1316, 1318, 1319, 1320, 1322, 1323
 1324, 1326, 1327, 1328, 1330, 1331, 1332, 1334, 1335, 1336, 1338, 1339, 1340, 1342, 1343, 1344
 1346, 1347, 1348, 1350, 1351, 1352, 1354, 1355, 1356, 1358, 1359, 1360, 1362, 1363, 1364, 1366
 1367, 1368, 1370, 1371, 1372, 1374, 1375, 1376, 1378, 1379, 1380, 1382, 1383, 1384, 1386, 1387
 1388, 1390, 1391, 1392, 1394, 1395, 1396, 1398, 1399, 1400, 1402, 1403, 1404, 1406, 1407, 1408
 1410, 1411, 1412, 1414, 1415, 1416, 1418, 1419, 1420, 1422, 1423, 1424, 1426, 1427, 1428, 1430
 1431, 1432, 1434, 1435, 1436, 1438, 1439, 1440
*Surface, type=ELEMENT, name=TopContactSurface
_TopContactSurface_S2, S2
_TopContactSurface_S3, S3
_TopContactSurface_S4, S4
_TopContactSurface_S6, S6
_TopContactSurface_S5, S5
*Elset, elset=__PickedSurf28_S2, internal, instance=BanerjeeTestPart-1
  199,  200,  201,  202,  203,  204,  205,  206,  207,  208,  209,  210,  211,  212,  213,  214
  215,  216,  217,  218,  219,  220, 1612, 1613, 1614, 1615, 1616, 1617, 1618, 1619, 1620, 1621
 1622, 1623, 1624, 1625, 1626, 1627, 1628, 1629, 1630
*Surface, type=ELEMENT, name=_PickedSurf28, internal
__PickedSurf28_S2, S2
*Elset, elset=_BOTTOMCONTACTSURF_S2, internal, instance=BOTTOMBLOCK-1, generate
  901,  1800,     1
*Surface, type=ELEMENT, name=BOTTOMCONTACTSURF
_BOTTOMCONTACTSURF_S2, S2
*Elset, elset=__ContactCupSurf_ssm_3_S3, internal, instance=BanerjeeTestPart-1, generate
 1217,  1325,     4
*Elset, elset=__ContactCupSurf_ssm_3_S4, internal, instance=BanerjeeTestPart-1, generate
 1217,  1325,     4
*Elset, elset=__ContactCupSurf_ssm_3_S5, internal, instance=BanerjeeTestPart-1, generate
 1218,  1326,     4
*Elset, elset=__ContactCupSurf_ssm_3_S6, internal, instance=BanerjeeTestPart-1
 1218, 1219, 1220, 1222, 1223, 1224, 1226, 1227, 1228, 1230, 1231, 1232, 1234, 1235, 1236, 1238
 1239, 1240, 1242, 1243, 1244, 1246, 1247, 1248, 1250, 1251, 1252, 1254, 1255, 1256, 1258, 1259
 1260, 1262, 1263, 1264, 1266, 1267, 1268, 1270, 1271, 1272, 1274, 1275, 1276, 1278, 1279, 1280
 1282, 1283, 1284, 1286, 1287, 1288, 1290, 1291, 1292, 1294, 1295, 1296, 1298, 1299, 1300, 1302
 1303, 1304, 1306, 1307, 1308, 1310, 1311, 1312, 1314, 1315, 1316, 1318, 1319, 1320, 1322, 1323
 1324, 1326, 1327, 1328
*Surface, type=ELEMENT, name=_ContactCupSurf_ssm_3, internal
__ContactCupSurf_ssm_3_S3, S3
__ContactCupSurf_ssm_3_S4, S4
__ContactCupSurf_ssm_3_S6, S6
__ContactCupSurf_ssm_3_S5, S5
*Elset, elset=__ContactCupSurf_ssm_4_S3, internal, instance=BanerjeeTestPart-1, generate
 1329,  1437,     4
*Elset, elset=__ContactCupSurf_ssm_4_S4, internal, instance=BanerjeeTestPart-1, generate
 1329,  1437,     4
*Elset, elset=__ContactCupSurf_ssm_4_S5, internal, instance=BanerjeeTestPart-1, generate
 1330,  1438,     4
*Elset, elset=__ContactCupSurf_ssm_4_S6, internal, instance=BanerjeeTestPart-1
 1330, 1331, 1332, 1334, 1335, 1336, 1338, 1339, 1340, 1342, 1343, 1344, 1346, 1347, 1348, 1350
 1351, 1352, 1354, 1355, 1356, 1358, 1359, 1360, 1362, 1363, 1364, 1366, 1367, 1368, 1370, 1371
 1372, 1374, 1375, 1376, 1378, 1379, 1380, 1382, 1383, 1384, 1386, 1387, 1388, 1390, 1391, 1392
 1394, 1395, 1396, 1398, 1399, 1400, 1402, 1403, 1404, 1406, 1407, 1408, 1410, 1411, 1412, 1414
 1415, 1416, 1418, 1419, 1420, 1422, 1423, 1424, 1426, 1427, 1428, 1430, 1431, 1432, 1434, 1435
 1436, 1438, 1439, 1440
*Surface, type=ELEMENT, name=_ContactCupSurf_ssm_4, internal
__ContactCupSurf_ssm_4_S3, S3
__ContactCupSurf_ssm_4_S4, S4
__ContactCupSurf_ssm_4_S6, S6
__ContactCupSurf_ssm_4_S5, S5
*End Assembly
** 
** MATERIALS
** 
*Material, name=ELASTOMER
*Density
1.,
*Hyperelastic, yeoh
 12.02,   -0.57,   0.044, 9.2e-10, 9.2e-10, 9.2e-10
**  MATERIALS
*Material, name="SOFT SURFACE"
*Density
1.,
*Hyperelastic, neo hooke
2290., 9.2e-10
** 
** INTERACTION PROPERTIES
** 
*Surface Interaction, name=CONTACT-1
1.,
*Friction
0.,
*Surface Behavior, pressure-overclosure=HARD
*Surface Smoothing, name=ContactCupSurf
_ContactCupSurf_ssm_3, , CIRCUMFERENTIAL, 19.2058, 16.8, -1.1888, 19.2058, 16.8, -0.1888
_ContactCupSurf_ssm_4, , CIRCUMFERENTIAL, 19.2058, 16.8, -1.1888, 19.2058, 16.8, -0.1888
** 
** INTERACTIONS
** 
** Interaction: ContactCupSurf
*Contact Pair, interaction=CONTACT-1, type=SURFACE TO SURFACE, adjust=0.0, geometric correction=ContactCupSurf
TopContactSurface, BOTTOMCONTACTSURF
** ----------------------------------------------------------------
** 
** STEP: Step-1
** 
*Step, name=Step-1, nlgeom=YES, inc=2000
push contact
*Static
0.01, 2., 1e-09, 0.05
** 
** BOUNDARY CONDITIONS
** 
** Name: BC-4 Type: Displacement/Rotation
*Boundary
_PickedSet14, 3, 3, -2.5
** Name: BC-5 Type: Displacement/Rotation
*Boundary
_PickedSet15, 1, 1
_PickedSet15, 2, 2
** Name: Disp-BC-1 Type: Displacement/Rotation
*Boundary
NODEFIXEDBOT, 3, 3
** Name: Disp-BC-2 Type: Displacement/Rotation
*Boundary
NODEXSYMMBOT, 1, 1
** Name: Disp-BC-3 Type: Displacement/Rotation
*Boundary
NODEYSYMMBOT, 2, 2
** 
** INTERACTIONS
** 
** Contact Controls for Interaction: ContactCupSurf
*Contact Controls, master=BOTTOMCONTACTSURF, slave=TopContactSurface, reset
*Contact Controls, master=BOTTOMCONTACTSURF, slave=TopContactSurface, Lagrange multiplier=YES, automaticTolerances, stabilize=0.1, 
tangent fraction=0.1
** 
** OUTPUT REQUESTS
** 
*Restart, write, frequency=0
** 
** FIELD OUTPUT: F-Output-1
** 
*Output, field, variable=PRESELECT
** 
** HISTORY OUTPUT: H-Output-1
** 
*Output, history, variable=PRESELECT
*End Step
